Master_LV_IEEE.dss
clear

! Stefan Bajai 
! IEEE ELVTF Analysis
! MSc Thesis - Imperial College London


Set DefaultBaseFrequency=50     !Since UK System

New circuit.MastersThesis_StefanBajai_IEEE_TestFeeder 

! Instead of fixed point iterative, can also use Newton method to solve
!set algorithm=newton

Edit Vsource.Source BasekV=11 pu=1 ISC3=3000  ISC1=1500

New LineCode.2c_.007 nphases=3 R1=3.97 X1=0.099 R0=3.97 X0=0.099 C1=0 C0=0 Units=km
New LineCode.2c_.0225 nphases=3 R1=1.257 X1=0.085 R0=1.257 X0=0.085 C1=0 C0=0 Units=km
New LineCode.2c_16 nphases=3 R1=1.15 X1=0.088 R0=1.2 X0=0.088 C1=0 C0=0 Units=km
New LineCode.35_SAC_XSC nphases=3 R1=0.868 X1=0.092 R0=0.76 X0=0.092 C1=0 C0=0 Units=km
New LineCode.4c_.06 nphases=3 R1=0.469 X1=0.075 R0=1.581 X0=0.091 C1=0 C0=0 Units=km
New LineCode.4c_.1 nphases=3 R1=0.274 X1=0.073 R0=0.959 X0=0.079 C1=0 C0=0 Units=km
New LineCode.4c_.35 nphases=3 R1=0.089 X1=0.0675 R0=0.319 X0=0.076 C1=0 C0=0 Units=km
New LineCode.4c_185 nphases=3 R1=0.166 X1=0.068 R0=0.58 X0=0.078 C1=0 C0=0 Units=km
New LineCode.4c_70 nphases=3 R1=0.446 X1=0.071 R0=1.505 X0=0.083 C1=0 C0=0 Units=km
New LineCode.4c_95_SAC_XC nphases=3 R1=0.322 X1=0.074 R0=0.804 X0=0.093 C1=0 C0=0 Units=km

!! Summer Load Shape Definitions

New Loadshape.Shape_1 npts=1440 minterval=1 mult=(file=Load_Profiles\Summer\Summer_Load_Output_kW_Load1.csv) useactual=true
New Loadshape.Shape_2 npts=1440 minterval=1 mult=(file=Load_Profiles\Summer\Summer_Load_Output_kW_Load2.csv) useactual=true
New Loadshape.Shape_3 npts=1440 minterval=1 mult=(file=Load_Profiles\Summer\Summer_Load_Output_kW_Load3.csv) useactual=true
New Loadshape.Shape_4 npts=1440 minterval=1 mult=(file=Load_Profiles\Summer\Summer_Load_Output_kW_Load4.csv) useactual=true
New Loadshape.Shape_5 npts=1440 minterval=1 mult=(file=Load_Profiles\Summer\Summer_Load_Output_kW_Load5.csv) useactual=true
New Loadshape.Shape_6 npts=1440 minterval=1 mult=(file=Load_Profiles\Summer\Summer_Load_Output_kW_Load6.csv) useactual=true
New Loadshape.Shape_7 npts=1440 minterval=1 mult=(file=Load_Profiles\Summer\Summer_Load_Output_kW_Load7.csv) useactual=true
New Loadshape.Shape_8 npts=1440 minterval=1 mult=(file=Load_Profiles\Summer\Summer_Load_Output_kW_Load8.csv) useactual=true
New Loadshape.Shape_9 npts=1440 minterval=1 mult=(file=Load_Profiles\Summer\Summer_Load_Output_kW_Load9.csv) useactual=true
New Loadshape.Shape_10 npts=1440 minterval=1 mult=(file=Load_Profiles\Summer\Summer_Load_Output_kW_Load10.csv) useactual=true
New Loadshape.Shape_11 npts=1440 minterval=1 mult=(file=Load_Profiles\Summer\Summer_Load_Output_kW_Load11.csv) useactual=true
New Loadshape.Shape_12 npts=1440 minterval=1 mult=(file=Load_Profiles\Summer\Summer_Load_Output_kW_Load12.csv) useactual=true
New Loadshape.Shape_13 npts=1440 minterval=1 mult=(file=Load_Profiles\Summer\Summer_Load_Output_kW_Load13.csv) useactual=true
New Loadshape.Shape_14 npts=1440 minterval=1 mult=(file=Load_Profiles\Summer\Summer_Load_Output_kW_Load14.csv) useactual=true
New Loadshape.Shape_15 npts=1440 minterval=1 mult=(file=Load_Profiles\Summer\Summer_Load_Output_kW_Load15.csv) useactual=true
New Loadshape.Shape_16 npts=1440 minterval=1 mult=(file=Load_Profiles\Summer\Summer_Load_Output_kW_Load16.csv) useactual=true
New Loadshape.Shape_17 npts=1440 minterval=1 mult=(file=Load_Profiles\Summer\Summer_Load_Output_kW_Load17.csv) useactual=true
New Loadshape.Shape_18 npts=1440 minterval=1 mult=(file=Load_Profiles\Summer\Summer_Load_Output_kW_Load18.csv) useactual=true
New Loadshape.Shape_19 npts=1440 minterval=1 mult=(file=Load_Profiles\Summer\Summer_Load_Output_kW_Load19.csv) useactual=true
New Loadshape.Shape_20 npts=1440 minterval=1 mult=(file=Load_Profiles\Summer\Summer_Load_Output_kW_Load20.csv) useactual=true
New Loadshape.Shape_21 npts=1440 minterval=1 mult=(file=Load_Profiles\Summer\Summer_Load_Output_kW_Load21.csv) useactual=true
New Loadshape.Shape_22 npts=1440 minterval=1 mult=(file=Load_Profiles\Summer\Summer_Load_Output_kW_Load22.csv) useactual=true
New Loadshape.Shape_23 npts=1440 minterval=1 mult=(file=Load_Profiles\Summer\Summer_Load_Output_kW_Load23.csv) useactual=true
New Loadshape.Shape_24 npts=1440 minterval=1 mult=(file=Load_Profiles\Summer\Summer_Load_Output_kW_Load24.csv) useactual=true
New Loadshape.Shape_25 npts=1440 minterval=1 mult=(file=Load_Profiles\Summer\Summer_Load_Output_kW_Load25.csv) useactual=true
New Loadshape.Shape_26 npts=1440 minterval=1 mult=(file=Load_Profiles\Summer\Summer_Load_Output_kW_Load26.csv) useactual=true
New Loadshape.Shape_27 npts=1440 minterval=1 mult=(file=Load_Profiles\Summer\Summer_Load_Output_kW_Load27.csv) useactual=true
New Loadshape.Shape_28 npts=1440 minterval=1 mult=(file=Load_Profiles\Summer\Summer_Load_Output_kW_Load28.csv) useactual=true
New Loadshape.Shape_29 npts=1440 minterval=1 mult=(file=Load_Profiles\Summer\Summer_Load_Output_kW_Load29.csv) useactual=true
New Loadshape.Shape_30 npts=1440 minterval=1 mult=(file=Load_Profiles\Summer\Summer_Load_Output_kW_Load30.csv) useactual=true
New Loadshape.Shape_31 npts=1440 minterval=1 mult=(file=Load_Profiles\Summer\Summer_Load_Output_kW_Load31.csv) useactual=true
New Loadshape.Shape_32 npts=1440 minterval=1 mult=(file=Load_Profiles\Summer\Summer_Load_Output_kW_Load32.csv) useactual=true
New Loadshape.Shape_33 npts=1440 minterval=1 mult=(file=Load_Profiles\Summer\Summer_Load_Output_kW_Load33.csv) useactual=true
New Loadshape.Shape_34 npts=1440 minterval=1 mult=(file=Load_Profiles\Summer\Summer_Load_Output_kW_Load34.csv) useactual=true
New Loadshape.Shape_35 npts=1440 minterval=1 mult=(file=Load_Profiles\Summer\Summer_Load_Output_kW_Load35.csv) useactual=true
New Loadshape.Shape_36 npts=1440 minterval=1 mult=(file=Load_Profiles\Summer\Summer_Load_Output_kW_Load36.csv) useactual=true
New Loadshape.Shape_37 npts=1440 minterval=1 mult=(file=Load_Profiles\Summer\Summer_Load_Output_kW_Load37.csv) useactual=true
New Loadshape.Shape_38 npts=1440 minterval=1 mult=(file=Load_Profiles\Summer\Summer_Load_Output_kW_Load38.csv) useactual=true
New Loadshape.Shape_39 npts=1440 minterval=1 mult=(file=Load_Profiles\Summer\Summer_Load_Output_kW_Load39.csv) useactual=true
New Loadshape.Shape_40 npts=1440 minterval=1 mult=(file=Load_Profiles\Summer\Summer_Load_Output_kW_Load40.csv) useactual=true
New Loadshape.Shape_41 npts=1440 minterval=1 mult=(file=Load_Profiles\Summer\Summer_Load_Output_kW_Load41.csv) useactual=true
New Loadshape.Shape_42 npts=1440 minterval=1 mult=(file=Load_Profiles\Summer\Summer_Load_Output_kW_Load42.csv) useactual=true
New Loadshape.Shape_43 npts=1440 minterval=1 mult=(file=Load_Profiles\Summer\Summer_Load_Output_kW_Load43.csv) useactual=true
New Loadshape.Shape_44 npts=1440 minterval=1 mult=(file=Load_Profiles\Summer\Summer_Load_Output_kW_Load44.csv) useactual=true
New Loadshape.Shape_45 npts=1440 minterval=1 mult=(file=Load_Profiles\Summer\Summer_Load_Output_kW_Load45.csv) useactual=true
New Loadshape.Shape_46 npts=1440 minterval=1 mult=(file=Load_Profiles\Summer\Summer_Load_Output_kW_Load46.csv) useactual=true
New Loadshape.Shape_47 npts=1440 minterval=1 mult=(file=Load_Profiles\Summer\Summer_Load_Output_kW_Load47.csv) useactual=true
New Loadshape.Shape_48 npts=1440 minterval=1 mult=(file=Load_Profiles\Summer\Summer_Load_Output_kW_Load48.csv) useactual=true
New Loadshape.Shape_49 npts=1440 minterval=1 mult=(file=Load_Profiles\Summer\Summer_Load_Output_kW_Load49.csv) useactual=true
New Loadshape.Shape_50 npts=1440 minterval=1 mult=(file=Load_Profiles\Summer\Summer_Load_Output_kW_Load50.csv) useactual=true
New Loadshape.Shape_51 npts=1440 minterval=1 mult=(file=Load_Profiles\Summer\Summer_Load_Output_kW_Load51.csv) useactual=true
New Loadshape.Shape_52 npts=1440 minterval=1 mult=(file=Load_Profiles\Summer\Summer_Load_Output_kW_Load52.csv) useactual=true
New Loadshape.Shape_53 npts=1440 minterval=1 mult=(file=Load_Profiles\Summer\Summer_Load_Output_kW_Load53.csv) useactual=true
New Loadshape.Shape_54 npts=1440 minterval=1 mult=(file=Load_Profiles\Summer\Summer_Load_Output_kW_Load54.csv) useactual=true
New Loadshape.Shape_55 npts=1440 minterval=1 mult=(file=Load_Profiles\Summer\Summer_Load_Output_kW_Load55.csv) useactual=true

!! Summer PV Shapes 

New Loadshape.PV_1 npts=1440 minterval=1 mult=(file=Load_Profiles\Summer\Summer_PV_Output_kW_Load1.csv) action=normalize
New Loadshape.PV_2 npts=1440 minterval=1 mult=(file=Load_Profiles\Summer\Summer_PV_Output_kW_Load2.csv) action=normalize
New Loadshape.PV_3 npts=1440 minterval=1 mult=(file=Load_Profiles\Summer\Summer_PV_Output_kW_Load3.csv) action=normalize
New Loadshape.PV_4 npts=1440 minterval=1 mult=(file=Load_Profiles\Summer\Summer_PV_Output_kW_Load4.csv) action=normalize
New Loadshape.PV_5 npts=1440 minterval=1 mult=(file=Load_Profiles\Summer\Summer_PV_Output_kW_Load5.csv) action=normalize
New Loadshape.PV_6 npts=1440 minterval=1 mult=(file=Load_Profiles\Summer\Summer_PV_Output_kW_Load6.csv) action=normalize
New Loadshape.PV_7 npts=1440 minterval=1 mult=(file=Load_Profiles\Summer\Summer_PV_Output_kW_Load7.csv) action=normalize
New Loadshape.PV_8 npts=1440 minterval=1 mult=(file=Load_Profiles\Summer\Summer_PV_Output_kW_Load8.csv) action=normalize
New Loadshape.PV_9 npts=1440 minterval=1 mult=(file=Load_Profiles\Summer\Summer_PV_Output_kW_Load9.csv) action=normalize
New Loadshape.PV_10 npts=1440 minterval=1 mult=(file=Load_Profiles\Summer\Summer_PV_Output_kW_Load10.csv) action=normalize
New Loadshape.PV_11 npts=1440 minterval=1 mult=(file=Load_Profiles\Summer\Summer_PV_Output_kW_Load11.csv) action=normalize
New Loadshape.PV_12 npts=1440 minterval=1 mult=(file=Load_Profiles\Summer\Summer_PV_Output_kW_Load12.csv) action=normalize
New Loadshape.PV_13 npts=1440 minterval=1 mult=(file=Load_Profiles\Summer\Summer_PV_Output_kW_Load13.csv) action=normalize
New Loadshape.PV_14 npts=1440 minterval=1 mult=(file=Load_Profiles\Summer\Summer_PV_Output_kW_Load14.csv) action=normalize
New Loadshape.PV_15 npts=1440 minterval=1 mult=(file=Load_Profiles\Summer\Summer_PV_Output_kW_Load15.csv) action=normalize
New Loadshape.PV_16 npts=1440 minterval=1 mult=(file=Load_Profiles\Summer\Summer_PV_Output_kW_Load16.csv) action=normalize
New Loadshape.PV_17 npts=1440 minterval=1 mult=(file=Load_Profiles\Summer\Summer_PV_Output_kW_Load17.csv) action=normalize
New Loadshape.PV_18 npts=1440 minterval=1 mult=(file=Load_Profiles\Summer\Summer_PV_Output_kW_Load18.csv) action=normalize
New Loadshape.PV_19 npts=1440 minterval=1 mult=(file=Load_Profiles\Summer\Summer_PV_Output_kW_Load19.csv) action=normalize
New Loadshape.PV_20 npts=1440 minterval=1 mult=(file=Load_Profiles\Summer\Summer_PV_Output_kW_Load20.csv) action=normalize
New Loadshape.PV_21 npts=1440 minterval=1 mult=(file=Load_Profiles\Summer\Summer_PV_Output_kW_Load21.csv) action=normalize
New Loadshape.PV_22 npts=1440 minterval=1 mult=(file=Load_Profiles\Summer\Summer_PV_Output_kW_Load22.csv) action=normalize
New Loadshape.PV_23 npts=1440 minterval=1 mult=(file=Load_Profiles\Summer\Summer_PV_Output_kW_Load23.csv) action=normalize
New Loadshape.PV_24 npts=1440 minterval=1 mult=(file=Load_Profiles\Summer\Summer_PV_Output_kW_Load24.csv) action=normalize
New Loadshape.PV_25 npts=1440 minterval=1 mult=(file=Load_Profiles\Summer\Summer_PV_Output_kW_Load25.csv) action=normalize
New Loadshape.PV_26 npts=1440 minterval=1 mult=(file=Load_Profiles\Summer\Summer_PV_Output_kW_Load26.csv) action=normalize
New Loadshape.PV_27 npts=1440 minterval=1 mult=(file=Load_Profiles\Summer\Summer_PV_Output_kW_Load27.csv) action=normalize
New Loadshape.PV_28 npts=1440 minterval=1 mult=(file=Load_Profiles\Summer\Summer_PV_Output_kW_Load28.csv) action=normalize
New Loadshape.PV_29 npts=1440 minterval=1 mult=(file=Load_Profiles\Summer\Summer_PV_Output_kW_Load29.csv) action=normalize
New Loadshape.PV_30 npts=1440 minterval=1 mult=(file=Load_Profiles\Summer\Summer_PV_Output_kW_Load30.csv) action=normalize
New Loadshape.PV_31 npts=1440 minterval=1 mult=(file=Load_Profiles\Summer\Summer_PV_Output_kW_Load31.csv) action=normalize
New Loadshape.PV_32 npts=1440 minterval=1 mult=(file=Load_Profiles\Summer\Summer_PV_Output_kW_Load32.csv) action=normalize
New Loadshape.PV_33 npts=1440 minterval=1 mult=(file=Load_Profiles\Summer\Summer_PV_Output_kW_Load33.csv) action=normalize
New Loadshape.PV_34 npts=1440 minterval=1 mult=(file=Load_Profiles\Summer\Summer_PV_Output_kW_Load34.csv) action=normalize
New Loadshape.PV_35 npts=1440 minterval=1 mult=(file=Load_Profiles\Summer\Summer_PV_Output_kW_Load35.csv) action=normalize
New Loadshape.PV_36 npts=1440 minterval=1 mult=(file=Load_Profiles\Summer\Summer_PV_Output_kW_Load36.csv) action=normalize
New Loadshape.PV_37 npts=1440 minterval=1 mult=(file=Load_Profiles\Summer\Summer_PV_Output_kW_Load37.csv) action=normalize
New Loadshape.PV_38 npts=1440 minterval=1 mult=(file=Load_Profiles\Summer\Summer_PV_Output_kW_Load38.csv) action=normalize
New Loadshape.PV_39 npts=1440 minterval=1 mult=(file=Load_Profiles\Summer\Summer_PV_Output_kW_Load39.csv) action=normalize
New Loadshape.PV_40 npts=1440 minterval=1 mult=(file=Load_Profiles\Summer\Summer_PV_Output_kW_Load40.csv) action=normalize
New Loadshape.PV_41 npts=1440 minterval=1 mult=(file=Load_Profiles\Summer\Summer_PV_Output_kW_Load41.csv) action=normalize
New Loadshape.PV_42 npts=1440 minterval=1 mult=(file=Load_Profiles\Summer\Summer_PV_Output_kW_Load42.csv) action=normalize
New Loadshape.PV_43 npts=1440 minterval=1 mult=(file=Load_Profiles\Summer\Summer_PV_Output_kW_Load43.csv) action=normalize
New Loadshape.PV_44 npts=1440 minterval=1 mult=(file=Load_Profiles\Summer\Summer_PV_Output_kW_Load44.csv) action=normalize
New Loadshape.PV_45 npts=1440 minterval=1 mult=(file=Load_Profiles\Summer\Summer_PV_Output_kW_Load45.csv) action=normalize
New Loadshape.PV_46 npts=1440 minterval=1 mult=(file=Load_Profiles\Summer\Summer_PV_Output_kW_Load46.csv) action=normalize
New Loadshape.PV_47 npts=1440 minterval=1 mult=(file=Load_Profiles\Summer\Summer_PV_Output_kW_Load47.csv) action=normalize
New Loadshape.PV_48 npts=1440 minterval=1 mult=(file=Load_Profiles\Summer\Summer_PV_Output_kW_Load48.csv) action=normalize
New Loadshape.PV_49 npts=1440 minterval=1 mult=(file=Load_Profiles\Summer\Summer_PV_Output_kW_Load49.csv) action=normalize
New Loadshape.PV_50 npts=1440 minterval=1 mult=(file=Load_Profiles\Summer\Summer_PV_Output_kW_Load50.csv) action=normalize
New Loadshape.PV_51 npts=1440 minterval=1 mult=(file=Load_Profiles\Summer\Summer_PV_Output_kW_Load51.csv) action=normalize
New Loadshape.PV_52 npts=1440 minterval=1 mult=(file=Load_Profiles\Summer\Summer_PV_Output_kW_Load52.csv) action=normalize
New Loadshape.PV_53 npts=1440 minterval=1 mult=(file=Load_Profiles\Summer\Summer_PV_Output_kW_Load53.csv) action=normalize
New Loadshape.PV_54 npts=1440 minterval=1 mult=(file=Load_Profiles\Summer\Summer_PV_Output_kW_Load54.csv) action=normalize
New Loadshape.PV_55 npts=1440 minterval=1 mult=(file=Load_Profiles\Summer\Summer_PV_Output_kW_Load55.csv) action=normalize
batchedit loadshape..* useactual=no


!! Winter Load Shape Definitions  

/*
New Loadshape.Shape_1 npts=1440 minterval=1 mult=(file=Load_Profiles\Winter\Winter_Load_Output_kW_Load1.csv) useactual=true
New Loadshape.Shape_2 npts=1440 minterval=1 mult=(file=Load_Profiles\Winter\Winter_Load_Output_kW_Load2.csv) useactual=true
New Loadshape.Shape_3 npts=1440 minterval=1 mult=(file=Load_Profiles\Winter\Winter_Load_Output_kW_Load3.csv) useactual=true
New Loadshape.Shape_4 npts=1440 minterval=1 mult=(file=Load_Profiles\Winter\Winter_Load_Output_kW_Load4.csv) useactual=true
New Loadshape.Shape_5 npts=1440 minterval=1 mult=(file=Load_Profiles\Winter\Winter_Load_Output_kW_Load5.csv) useactual=true
New Loadshape.Shape_6 npts=1440 minterval=1 mult=(file=Load_Profiles\Winter\Winter_Load_Output_kW_Load6.csv) useactual=true
New Loadshape.Shape_7 npts=1440 minterval=1 mult=(file=Load_Profiles\Winter\Winter_Load_Output_kW_Load7.csv) useactual=true
New Loadshape.Shape_8 npts=1440 minterval=1 mult=(file=Load_Profiles\Winter\Winter_Load_Output_kW_Load8.csv) useactual=true
New Loadshape.Shape_9 npts=1440 minterval=1 mult=(file=Load_Profiles\Winter\Winter_Load_Output_kW_Load9.csv) useactual=true
New Loadshape.Shape_10 npts=1440 minterval=1 mult=(file=Load_Profiles\Winter\Winter_Load_Output_kW_Load10.csv) useactual=true
New Loadshape.Shape_11 npts=1440 minterval=1 mult=(file=Load_Profiles\Winter\Winter_Load_Output_kW_Load11.csv) useactual=true
New Loadshape.Shape_12 npts=1440 minterval=1 mult=(file=Load_Profiles\Winter\Winter_Load_Output_kW_Load12.csv) useactual=true
New Loadshape.Shape_13 npts=1440 minterval=1 mult=(file=Load_Profiles\Winter\Winter_Load_Output_kW_Load13.csv) useactual=true
New Loadshape.Shape_14 npts=1440 minterval=1 mult=(file=Load_Profiles\Winter\Winter_Load_Output_kW_Load14.csv) useactual=true
New Loadshape.Shape_15 npts=1440 minterval=1 mult=(file=Load_Profiles\Winter\Winter_Load_Output_kW_Load15.csv) useactual=true
New Loadshape.Shape_16 npts=1440 minterval=1 mult=(file=Load_Profiles\Winter\Winter_Load_Output_kW_Load16.csv) useactual=true
New Loadshape.Shape_17 npts=1440 minterval=1 mult=(file=Load_Profiles\Winter\Winter_Load_Output_kW_Load17.csv) useactual=true
New Loadshape.Shape_18 npts=1440 minterval=1 mult=(file=Load_Profiles\Winter\Winter_Load_Output_kW_Load18.csv) useactual=true
New Loadshape.Shape_19 npts=1440 minterval=1 mult=(file=Load_Profiles\Winter\Winter_Load_Output_kW_Load19.csv) useactual=true
New Loadshape.Shape_20 npts=1440 minterval=1 mult=(file=Load_Profiles\Winter\Winter_Load_Output_kW_Load20.csv) useactual=true
New Loadshape.Shape_21 npts=1440 minterval=1 mult=(file=Load_Profiles\Winter\Winter_Load_Output_kW_Load21.csv) useactual=true
New Loadshape.Shape_22 npts=1440 minterval=1 mult=(file=Load_Profiles\Winter\Winter_Load_Output_kW_Load22.csv) useactual=true
New Loadshape.Shape_23 npts=1440 minterval=1 mult=(file=Load_Profiles\Winter\Winter_Load_Output_kW_Load23.csv) useactual=true
New Loadshape.Shape_24 npts=1440 minterval=1 mult=(file=Load_Profiles\Winter\Winter_Load_Output_kW_Load24.csv) useactual=true
New Loadshape.Shape_25 npts=1440 minterval=1 mult=(file=Load_Profiles\Winter\Winter_Load_Output_kW_Load25.csv) useactual=true
New Loadshape.Shape_26 npts=1440 minterval=1 mult=(file=Load_Profiles\Winter\Winter_Load_Output_kW_Load26.csv) useactual=true
New Loadshape.Shape_27 npts=1440 minterval=1 mult=(file=Load_Profiles\Winter\Winter_Load_Output_kW_Load27.csv) useactual=true
New Loadshape.Shape_28 npts=1440 minterval=1 mult=(file=Load_Profiles\Winter\Winter_Load_Output_kW_Load28.csv) useactual=true
New Loadshape.Shape_29 npts=1440 minterval=1 mult=(file=Load_Profiles\Winter\Winter_Load_Output_kW_Load29.csv) useactual=true
New Loadshape.Shape_30 npts=1440 minterval=1 mult=(file=Load_Profiles\Winter\Winter_Load_Output_kW_Load30.csv) useactual=true
New Loadshape.Shape_31 npts=1440 minterval=1 mult=(file=Load_Profiles\Winter\Winter_Load_Output_kW_Load31.csv) useactual=true
New Loadshape.Shape_32 npts=1440 minterval=1 mult=(file=Load_Profiles\Winter\Winter_Load_Output_kW_Load32.csv) useactual=true
New Loadshape.Shape_33 npts=1440 minterval=1 mult=(file=Load_Profiles\Winter\Winter_Load_Output_kW_Load33.csv) useactual=true
New Loadshape.Shape_34 npts=1440 minterval=1 mult=(file=Load_Profiles\Winter\Winter_Load_Output_kW_Load34.csv) useactual=true
New Loadshape.Shape_35 npts=1440 minterval=1 mult=(file=Load_Profiles\Winter\Winter_Load_Output_kW_Load35.csv) useactual=true
New Loadshape.Shape_36 npts=1440 minterval=1 mult=(file=Load_Profiles\Winter\Winter_Load_Output_kW_Load36.csv) useactual=true
New Loadshape.Shape_37 npts=1440 minterval=1 mult=(file=Load_Profiles\Winter\Winter_Load_Output_kW_Load37.csv) useactual=true
New Loadshape.Shape_38 npts=1440 minterval=1 mult=(file=Load_Profiles\Winter\Winter_Load_Output_kW_Load38.csv) useactual=true
New Loadshape.Shape_39 npts=1440 minterval=1 mult=(file=Load_Profiles\Winter\Winter_Load_Output_kW_Load39.csv) useactual=true
New Loadshape.Shape_40 npts=1440 minterval=1 mult=(file=Load_Profiles\Winter\Winter_Load_Output_kW_Load40.csv) useactual=true
New Loadshape.Shape_41 npts=1440 minterval=1 mult=(file=Load_Profiles\Winter\Winter_Load_Output_kW_Load41.csv) useactual=true
New Loadshape.Shape_42 npts=1440 minterval=1 mult=(file=Load_Profiles\Winter\Winter_Load_Output_kW_Load42.csv) useactual=true
New Loadshape.Shape_43 npts=1440 minterval=1 mult=(file=Load_Profiles\Winter\Winter_Load_Output_kW_Load43.csv) useactual=true
New Loadshape.Shape_44 npts=1440 minterval=1 mult=(file=Load_Profiles\Winter\Winter_Load_Output_kW_Load44.csv) useactual=true
New Loadshape.Shape_45 npts=1440 minterval=1 mult=(file=Load_Profiles\Winter\Winter_Load_Output_kW_Load45.csv) useactual=true
New Loadshape.Shape_46 npts=1440 minterval=1 mult=(file=Load_Profiles\Winter\Winter_Load_Output_kW_Load46.csv) useactual=true
New Loadshape.Shape_47 npts=1440 minterval=1 mult=(file=Load_Profiles\Winter\Winter_Load_Output_kW_Load47.csv) useactual=true
New Loadshape.Shape_48 npts=1440 minterval=1 mult=(file=Load_Profiles\Winter\Winter_Load_Output_kW_Load48.csv) useactual=true
New Loadshape.Shape_49 npts=1440 minterval=1 mult=(file=Load_Profiles\Winter\Winter_Load_Output_kW_Load49.csv) useactual=true
New Loadshape.Shape_50 npts=1440 minterval=1 mult=(file=Load_Profiles\Winter\Winter_Load_Output_kW_Load50.csv) useactual=true
New Loadshape.Shape_51 npts=1440 minterval=1 mult=(file=Load_Profiles\Winter\Winter_Load_Output_kW_Load51.csv) useactual=true
New Loadshape.Shape_52 npts=1440 minterval=1 mult=(file=Load_Profiles\Winter\Winter_Load_Output_kW_Load52.csv) useactual=true
New Loadshape.Shape_53 npts=1440 minterval=1 mult=(file=Load_Profiles\Winter\Winter_Load_Output_kW_Load53.csv) useactual=true
New Loadshape.Shape_54 npts=1440 minterval=1 mult=(file=Load_Profiles\Winter\Winter_Load_Output_kW_Load54.csv) useactual=true
New Loadshape.Shape_55 npts=1440 minterval=1 mult=(file=Load_Profiles\Winter\Winter_Load_Output_kW_Load55.csv) useactual=true

New Loadshape.PV_1 npts=1440 minterval=1 mult=(file=Load_Profiles\Winter\Winter_PV_Output_kW_Load1.csv) action=normalize
New Loadshape.PV_2 npts=1440 minterval=1 mult=(file=Load_Profiles\Winter\Winter_PV_Output_kW_Load2.csv) action=normalize
New Loadshape.PV_3 npts=1440 minterval=1 mult=(file=Load_Profiles\Winter\Winter_PV_Output_kW_Load3.csv) action=normalize
New Loadshape.PV_4 npts=1440 minterval=1 mult=(file=Load_Profiles\Winter\Winter_PV_Output_kW_Load4.csv) action=normalize
New Loadshape.PV_5 npts=1440 minterval=1 mult=(file=Load_Profiles\Winter\Winter_PV_Output_kW_Load5.csv) action=normalize
New Loadshape.PV_6 npts=1440 minterval=1 mult=(file=Load_Profiles\Winter\Winter_PV_Output_kW_Load6.csv) action=normalize
New Loadshape.PV_7 npts=1440 minterval=1 mult=(file=Load_Profiles\Winter\Winter_PV_Output_kW_Load7.csv) action=normalize
New Loadshape.PV_8 npts=1440 minterval=1 mult=(file=Load_Profiles\Winter\Winter_PV_Output_kW_Load8.csv) action=normalize
New Loadshape.PV_9 npts=1440 minterval=1 mult=(file=Load_Profiles\Winter\Winter_PV_Output_kW_Load9.csv) action=normalize
New Loadshape.PV_10 npts=1440 minterval=1 mult=(file=Load_Profiles\Winter\Winter_PV_Output_kW_Load10.csv) action=normalize
New Loadshape.PV_11 npts=1440 minterval=1 mult=(file=Load_Profiles\Winter\Winter_PV_Output_kW_Load11.csv) action=normalize
New Loadshape.PV_12 npts=1440 minterval=1 mult=(file=Load_Profiles\Winter\Winter_PV_Output_kW_Load12.csv) action=normalize
New Loadshape.PV_13 npts=1440 minterval=1 mult=(file=Load_Profiles\Winter\Winter_PV_Output_kW_Load13.csv) action=normalize
New Loadshape.PV_14 npts=1440 minterval=1 mult=(file=Load_Profiles\Winter\Winter_PV_Output_kW_Load14.csv) action=normalize
New Loadshape.PV_15 npts=1440 minterval=1 mult=(file=Load_Profiles\Winter\Winter_PV_Output_kW_Load15.csv) action=normalize
New Loadshape.PV_16 npts=1440 minterval=1 mult=(file=Load_Profiles\Winter\Winter_PV_Output_kW_Load16.csv) action=normalize
New Loadshape.PV_17 npts=1440 minterval=1 mult=(file=Load_Profiles\Winter\Winter_PV_Output_kW_Load17.csv) action=normalize
New Loadshape.PV_18 npts=1440 minterval=1 mult=(file=Load_Profiles\Winter\Winter_PV_Output_kW_Load18.csv) action=normalize
New Loadshape.PV_19 npts=1440 minterval=1 mult=(file=Load_Profiles\Winter\Winter_PV_Output_kW_Load19.csv) action=normalize
New Loadshape.PV_20 npts=1440 minterval=1 mult=(file=Load_Profiles\Winter\Winter_PV_Output_kW_Load20.csv) action=normalize
New Loadshape.PV_21 npts=1440 minterval=1 mult=(file=Load_Profiles\Winter\Winter_PV_Output_kW_Load21.csv) action=normalize
New Loadshape.PV_22 npts=1440 minterval=1 mult=(file=Load_Profiles\Winter\Winter_PV_Output_kW_Load22.csv) action=normalize
New Loadshape.PV_23 npts=1440 minterval=1 mult=(file=Load_Profiles\Winter\Winter_PV_Output_kW_Load23.csv) action=normalize
New Loadshape.PV_24 npts=1440 minterval=1 mult=(file=Load_Profiles\Winter\Winter_PV_Output_kW_Load24.csv) action=normalize
New Loadshape.PV_25 npts=1440 minterval=1 mult=(file=Load_Profiles\Winter\Winter_PV_Output_kW_Load25.csv) action=normalize
New Loadshape.PV_26 npts=1440 minterval=1 mult=(file=Load_Profiles\Winter\Winter_PV_Output_kW_Load26.csv) action=normalize
New Loadshape.PV_27 npts=1440 minterval=1 mult=(file=Load_Profiles\Winter\Winter_PV_Output_kW_Load27.csv) action=normalize
New Loadshape.PV_28 npts=1440 minterval=1 mult=(file=Load_Profiles\Winter\Winter_PV_Output_kW_Load28.csv) action=normalize
New Loadshape.PV_29 npts=1440 minterval=1 mult=(file=Load_Profiles\Winter\Winter_PV_Output_kW_Load29.csv) action=normalize
New Loadshape.PV_30 npts=1440 minterval=1 mult=(file=Load_Profiles\Winter\Winter_PV_Output_kW_Load30.csv) action=normalize
New Loadshape.PV_31 npts=1440 minterval=1 mult=(file=Load_Profiles\Winter\Winter_PV_Output_kW_Load31.csv) action=normalize
New Loadshape.PV_32 npts=1440 minterval=1 mult=(file=Load_Profiles\Winter\Winter_PV_Output_kW_Load32.csv) action=normalize
New Loadshape.PV_33 npts=1440 minterval=1 mult=(file=Load_Profiles\Winter\Winter_PV_Output_kW_Load33.csv) action=normalize
New Loadshape.PV_34 npts=1440 minterval=1 mult=(file=Load_Profiles\Winter\Winter_PV_Output_kW_Load34.csv) action=normalize
New Loadshape.PV_35 npts=1440 minterval=1 mult=(file=Load_Profiles\Winter\Winter_PV_Output_kW_Load35.csv) action=normalize
New Loadshape.PV_36 npts=1440 minterval=1 mult=(file=Load_Profiles\Winter\Winter_PV_Output_kW_Load36.csv) action=normalize
New Loadshape.PV_37 npts=1440 minterval=1 mult=(file=Load_Profiles\Winter\Winter_PV_Output_kW_Load37.csv) action=normalize
New Loadshape.PV_38 npts=1440 minterval=1 mult=(file=Load_Profiles\Winter\Winter_PV_Output_kW_Load38.csv) action=normalize
New Loadshape.PV_39 npts=1440 minterval=1 mult=(file=Load_Profiles\Winter\Winter_PV_Output_kW_Load39.csv) action=normalize
New Loadshape.PV_40 npts=1440 minterval=1 mult=(file=Load_Profiles\Winter\Winter_PV_Output_kW_Load40.csv) action=normalize
New Loadshape.PV_41 npts=1440 minterval=1 mult=(file=Load_Profiles\Winter\Winter_PV_Output_kW_Load41.csv) action=normalize
New Loadshape.PV_42 npts=1440 minterval=1 mult=(file=Load_Profiles\Winter\Winter_PV_Output_kW_Load42.csv) action=normalize
New Loadshape.PV_43 npts=1440 minterval=1 mult=(file=Load_Profiles\Winter\Winter_PV_Output_kW_Load43.csv) action=normalize
New Loadshape.PV_44 npts=1440 minterval=1 mult=(file=Load_Profiles\Winter\Winter_PV_Output_kW_Load44.csv) action=normalize
New Loadshape.PV_45 npts=1440 minterval=1 mult=(file=Load_Profiles\Winter\Winter_PV_Output_kW_Load45.csv) action=normalize
New Loadshape.PV_46 npts=1440 minterval=1 mult=(file=Load_Profiles\Winter\Winter_PV_Output_kW_Load46.csv) action=normalize
New Loadshape.PV_47 npts=1440 minterval=1 mult=(file=Load_Profiles\Winter\Winter_PV_Output_kW_Load47.csv) action=normalize
New Loadshape.PV_48 npts=1440 minterval=1 mult=(file=Load_Profiles\Winter\Winter_PV_Output_kW_Load48.csv) action=normalize
New Loadshape.PV_49 npts=1440 minterval=1 mult=(file=Load_Profiles\Winter\Winter_PV_Output_kW_Load49.csv) action=normalize
New Loadshape.PV_50 npts=1440 minterval=1 mult=(file=Load_Profiles\Winter\Winter_PV_Output_kW_Load50.csv) action=normalize
New Loadshape.PV_51 npts=1440 minterval=1 mult=(file=Load_Profiles\Winter\Winter_PV_Output_kW_Load51.csv) action=normalize
New Loadshape.PV_52 npts=1440 minterval=1 mult=(file=Load_Profiles\Winter\Winter_PV_Output_kW_Load52.csv) action=normalize
New Loadshape.PV_53 npts=1440 minterval=1 mult=(file=Load_Profiles\Winter\Winter_PV_Output_kW_Load53.csv) action=normalize
New Loadshape.PV_54 npts=1440 minterval=1 mult=(file=Load_Profiles\Winter\Winter_PV_Output_kW_Load54.csv) action=normalize
New Loadshape.PV_55 npts=1440 minterval=1 mult=(file=Load_Profiles\Winter\Winter_PV_Output_kW_Load55.csv) action=normalize
batchedit loadshape..* useactual=no
*/


!Redirect LineCode.txt
!Redirect Lines.txt

New Line.LINE1 Bus1=1 Bus2=2 phases=3 Linecode=4c_70 Length=1.098 Units=m
New Line.LINE2 Bus1=2 Bus2=3 phases=3 Linecode=4c_70 Length=0.11511 Units=m
New Line.LINE3 Bus1=3 Bus2=4 phases=3 Linecode=4c_70 Length=0.10784 Units=m
New Line.LINE4 Bus1=4 Bus2=5 phases=3 Linecode=4c_70 Length=0.094021 Units=m
New Line.LINE5 Bus1=5 Bus2=6 phases=3 Linecode=4c_70 Length=0.14812 Units=m
New Line.LINE6 Bus1=6 Bus2=7 phases=3 Linecode=4c_70 Length=10.0863 Units=m
New Line.LINE7 Bus1=7 Bus2=8 phases=3 Linecode=4c_70 Length=0.45175 Units=m
New Line.LINE8 Bus1=8 Bus2=9 phases=3 Linecode=4c_70 Length=0.376 Units=m
New Line.LINE9 Bus1=9 Bus2=10 phases=3 Linecode=4c_70 Length=0.32997 Units=m
New Line.LINE10 Bus1=10 Bus2=11 phases=3 Linecode=4c_70 Length=0.24622 Units=m
New Line.LINE11 Bus1=11 Bus2=12 phases=3 Linecode=4c_70 Length=0.23114 Units=m
New Line.LINE12 Bus1=12 Bus2=13 phases=3 Linecode=4c_70 Length=0.14213 Units=m
New Line.LINE13 Bus1=13 Bus2=14 phases=3 Linecode=4c_70 Length=0.35384 Units=m
New Line.LINE14 Bus1=14 Bus2=15 phases=3 Linecode=4c_70 Length=2.8664 Units=m
New Line.LINE15 Bus1=15 Bus2=16 phases=3 Linecode=2c_.007 Length=0.09654 Units=m
New Line.LINE16 Bus1=15 Bus2=17 phases=3 Linecode=4c_70 Length=3.476 Units=m
New Line.LINE17 Bus1=16 Bus2=18 phases=3 Linecode=2c_.007 Length=0.044045 Units=m
New Line.LINE18 Bus1=17 Bus2=19 phases=3 Linecode=4c_70 Length=0.23917 Units=m
New Line.LINE19 Bus1=18 Bus2=20 phases=3 Linecode=2c_.007 Length=0.046174 Units=m
New Line.LINE20 Bus1=19 Bus2=21 phases=3 Linecode=4c_70 Length=0.26856 Units=m
New Line.LINE21 Bus1=20 Bus2=22 phases=3 Linecode=2c_.007 Length=0.041976 Units=m
New Line.LINE22 Bus1=21 Bus2=23 phases=3 Linecode=4c_70 Length=0.43727 Units=m
New Line.LINE23 Bus1=22 Bus2=24 phases=3 Linecode=2c_.007 Length=0.051245 Units=m
New Line.LINE24 Bus1=23 Bus2=25 phases=3 Linecode=4c_70 Length=0.7955 Units=m
New Line.LINE25 Bus1=24 Bus2=26 phases=3 Linecode=2c_.007 Length=0.055902 Units=m
New Line.LINE26 Bus1=25 Bus2=27 phases=3 Linecode=2c_16 Length=5.9049 Units=m
New Line.LINE27 Bus1=25 Bus2=28 phases=3 Linecode=4c_70 Length=9.9686 Units=m
New Line.LINE28 Bus1=26 Bus2=29 phases=3 Linecode=2c_.007 Length=0.054562 Units=m
New Line.LINE29 Bus1=27 Bus2=30 phases=3 Linecode=2c_16 Length=1.6265 Units=m
New Line.LINE30 Bus1=27 Bus2=31 phases=3 Linecode=2c_16 Length=1.5847 Units=m
New Line.LINE31 Bus1=28 Bus2=32 phases=3 Linecode=4c_70 Length=2.6538 Units=m
New Line.LINE32 Bus1=29 Bus2=33 phases=3 Linecode=2c_.007 Length=0.14629 Units=m
New Line.LINE33 Bus1=30 Bus2=34 phases=3 Linecode=2c_16 Length=3.7248 Units=m
New Line.LINE34 Bus1=31 Bus2=35 phases=3 Linecode=2c_16 Length=0.053666 Units=m
New Line.LINE35 Bus1=32 Bus2=36 phases=3 Linecode=2c_16 Length=5.7265 Units=m
New Line.LINE36 Bus1=32 Bus2=37 phases=3 Linecode=4c_70 Length=8.0244 Units=m
New Line.LINE37 Bus1=33 Bus2=38 phases=3 Linecode=2c_.007 Length=0.13648 Units=m
New Line.LINE38 Bus1=35 Bus2=39 phases=3 Linecode=2c_16 Length=0.077162 Units=m
New Line.LINE39 Bus1=36 Bus2=40 phases=3 Linecode=2c_16 Length=0.40004 Units=m
New Line.LINE40 Bus1=36 Bus2=41 phases=3 Linecode=2c_16 Length=1.8063 Units=m
New Line.LINE41 Bus1=37 Bus2=42 phases=3 Linecode=4c_70 Length=5.5684 Units=m
New Line.LINE42 Bus1=37 Bus2=43 phases=3 Linecode=4c_185 Length=0.21675 Units=m
New Line.LINE43 Bus1=38 Bus2=44 phases=3 Linecode=2c_.007 Length=0.033838 Units=m
New Line.LINE44 Bus1=39 Bus2=45 phases=3 Linecode=2c_16 Length=0.098955 Units=m
New Line.LINE45 Bus1=40 Bus2=46 phases=3 Linecode=2c_16 Length=0.18031 Units=m
New Line.LINE46 Bus1=41 Bus2=47 phases=3 Linecode=2c_16 Length=4.3463 Units=m
New Line.LINE47 Bus1=42 Bus2=48 phases=3 Linecode=4c_70 Length=4.2078 Units=m
New Line.LINE48 Bus1=43 Bus2=49 phases=3 Linecode=4c_185 Length=0.10436 Units=m
New Line.LINE49 Bus1=44 Bus2=50 phases=3 Linecode=2c_.007 Length=0.048104 Units=m
New Line.LINE50 Bus1=45 Bus2=51 phases=3 Linecode=2c_16 Length=0.241 Units=m
New Line.LINE51 Bus1=46 Bus2=52 phases=3 Linecode=2c_16 Length=0.19109 Units=m
New Line.LINE52 Bus1=48 Bus2=53 phases=3 Linecode=4c_70 Length=0.60668 Units=m
New Line.LINE53 Bus1=48 Bus2=54 phases=3 Linecode=4c_70 Length=0.63949 Units=m
New Line.LINE54 Bus1=49 Bus2=55 phases=3 Linecode=4c_185 Length=0.11625 Units=m
New Line.LINE55 Bus1=50 Bus2=56 phases=3 Linecode=2c_.007 Length=0.087664 Units=m
New Line.LINE56 Bus1=51 Bus2=57 phases=3 Linecode=2c_16 Length=0.20634 Units=m
New Line.LINE57 Bus1=52 Bus2=58 phases=3 Linecode=2c_16 Length=0.182 Units=m
New Line.LINE58 Bus1=53 Bus2=59 phases=3 Linecode=4c_70 Length=2.7481 Units=m
New Line.LINE59 Bus1=54 Bus2=60 phases=3 Linecode=4c_70 Length=0.065368 Units=m
New Line.LINE60 Bus1=55 Bus2=61 phases=3 Linecode=4c_185 Length=0.10028 Units=m
New Line.LINE61 Bus1=56 Bus2=62 phases=3 Linecode=2c_.007 Length=0.078 Units=m
New Line.LINE62 Bus1=57 Bus2=63 phases=3 Linecode=2c_16 Length=0.98912 Units=m
New Line.LINE63 Bus1=58 Bus2=64 phases=3 Linecode=2c_16 Length=0.109 Units=m
New Line.LINE64 Bus1=59 Bus2=65 phases=3 Linecode=4c_70 Length=0.55868 Units=m
New Line.LINE65 Bus1=59 Bus2=66 phases=3 Linecode=2c_16 Length=8.2583 Units=m
New Line.LINE66 Bus1=60 Bus2=67 phases=3 Linecode=4c_70 Length=0.074 Units=m
New Line.LINE67 Bus1=61 Bus2=68 phases=3 Linecode=4c_185 Length=0.096042 Units=m
New Line.LINE68 Bus1=62 Bus2=69 phases=3 Linecode=2c_.007 Length=0.083241 Units=m
New Line.LINE69 Bus1=63 Bus2=70 phases=3 Linecode=2c_16 Length=3.4962 Units=m
New Line.LINE70 Bus1=64 Bus2=71 phases=3 Linecode=2c_16 Length=0.21385 Units=m
New Line.LINE71 Bus1=65 Bus2=72 phases=3 Linecode=4c_70 Length=6.6006 Units=m
New Line.LINE72 Bus1=66 Bus2=73 phases=3 Linecode=2c_16 Length=4.0366 Units=m
New Line.LINE73 Bus1=66 Bus2=74 phases=3 Linecode=2c_16 Length=4.0366 Units=m
New Line.LINE74 Bus1=67 Bus2=75 phases=3 Linecode=4c_70 Length=0.17951 Units=m
New Line.LINE75 Bus1=68 Bus2=76 phases=3 Linecode=4c_185 Length=0.23551 Units=m
New Line.LINE76 Bus1=69 Bus2=77 phases=3 Linecode=2c_.007 Length=0.38907 Units=m
New Line.LINE77 Bus1=71 Bus2=78 phases=3 Linecode=2c_16 Length=1.0838 Units=m
New Line.LINE78 Bus1=72 Bus2=79 phases=3 Linecode=4c_70 Length=2.3008 Units=m
New Line.LINE79 Bus1=75 Bus2=80 phases=3 Linecode=4c_70 Length=0.10362 Units=m
New Line.LINE80 Bus1=76 Bus2=81 phases=3 Linecode=4c_185 Length=0.7469 Units=m
New Line.LINE81 Bus1=77 Bus2=82 phases=3 Linecode=2c_.007 Length=0.51088 Units=m
New Line.LINE82 Bus1=78 Bus2=83 phases=3 Linecode=2c_16 Length=4.084 Units=m
New Line.LINE83 Bus1=79 Bus2=84 phases=3 Linecode=4c_70 Length=0.50211 Units=m
New Line.LINE84 Bus1=80 Bus2=85 phases=3 Linecode=4c_70 Length=0.11122 Units=m
New Line.LINE85 Bus1=81 Bus2=86 phases=3 Linecode=4c_185 Length=1.4388 Units=m
New Line.LINE86 Bus1=82 Bus2=87 phases=3 Linecode=2c_.007 Length=0.31045 Units=m
New Line.LINE87 Bus1=84 Bus2=88 phases=3 Linecode=4c_70 Length=1.0182 Units=m
New Line.LINE88 Bus1=85 Bus2=89 phases=3 Linecode=4c_70 Length=0.1048 Units=m
New Line.LINE89 Bus1=86 Bus2=90 phases=3 Linecode=4c_185 Length=0.34251 Units=m
New Line.LINE90 Bus1=87 Bus2=91 phases=3 Linecode=2c_.007 Length=0.11206 Units=m
New Line.LINE91 Bus1=88 Bus2=92 phases=3 Linecode=4c_70 Length=0.96021 Units=m
New Line.LINE92 Bus1=90 Bus2=93 phases=3 Linecode=4c_185 Length=0.065307 Units=m
New Line.LINE93 Bus1=91 Bus2=94 phases=3 Linecode=2c_.007 Length=0.034785 Units=m
New Line.LINE94 Bus1=92 Bus2=95 phases=3 Linecode=4c_70 Length=0.55811 Units=m
New Line.LINE95 Bus1=93 Bus2=96 phases=3 Linecode=4c_185 Length=0.086052 Units=m
New Line.LINE96 Bus1=94 Bus2=97 phases=3 Linecode=2c_.007 Length=0.03677 Units=m
New Line.LINE97 Bus1=95 Bus2=98 phases=3 Linecode=4c_70 Length=0.36859 Units=m
New Line.LINE98 Bus1=96 Bus2=99 phases=3 Linecode=4c_185 Length=0.037216 Units=m
New Line.LINE99 Bus1=97 Bus2=100 phases=3 Linecode=2c_.007 Length=0.089588 Units=m
New Line.LINE100 Bus1=98 Bus2=101 phases=3 Linecode=4c_70 Length=0.50892 Units=m
New Line.LINE101 Bus1=99 Bus2=102 phases=3 Linecode=4c_185 Length=5.0819 Units=m
New Line.LINE102 Bus1=100 Bus2=103 phases=3 Linecode=2c_.007 Length=0.28583 Units=m
New Line.LINE103 Bus1=101 Bus2=104 phases=3 Linecode=4c_.35 Length=0.28838 Units=m
New Line.LINE104 Bus1=101 Bus2=105 phases=3 Linecode=4c_70 Length=0.33602 Units=m
New Line.LINE105 Bus1=102 Bus2=106 phases=3 Linecode=4c_185 Length=0.22108 Units=m
New Line.LINE106 Bus1=104 Bus2=107 phases=3 Linecode=4c_.35 Length=0.3489 Units=m
New Line.LINE107 Bus1=105 Bus2=108 phases=3 Linecode=4c_70 Length=0.19054 Units=m
New Line.LINE108 Bus1=106 Bus2=109 phases=3 Linecode=4c_185 Length=0.45085 Units=m
New Line.LINE109 Bus1=107 Bus2=110 phases=3 Linecode=4c_.35 Length=0.4044 Units=m
New Line.LINE110 Bus1=108 Bus2=111 phases=3 Linecode=4c_70 Length=7.5182 Units=m
New Line.LINE111 Bus1=109 Bus2=112 phases=3 Linecode=4c_185 Length=11.9766 Units=m
New Line.LINE112 Bus1=110 Bus2=113 phases=3 Linecode=4c_.35 Length=0.61659 Units=m
New Line.LINE113 Bus1=111 Bus2=114 phases=3 Linecode=4c_70 Length=0.75316 Units=m
New Line.LINE114 Bus1=112 Bus2=115 phases=3 Linecode=4c_185 Length=10.6613 Units=m
New Line.LINE115 Bus1=113 Bus2=116 phases=3 Linecode=4c_.35 Length=0.79271 Units=m
New Line.LINE116 Bus1=114 Bus2=117 phases=3 Linecode=4c_.35 Length=1.1056 Units=m
New Line.LINE117 Bus1=114 Bus2=118 phases=3 Linecode=4c_.1 Length=3.6556 Units=m
New Line.LINE118 Bus1=115 Bus2=119 phases=3 Linecode=4c_185 Length=0.99464 Units=m
New Line.LINE119 Bus1=116 Bus2=120 phases=3 Linecode=4c_.35 Length=0.56909 Units=m
New Line.LINE120 Bus1=117 Bus2=121 phases=3 Linecode=2c_.007 Length=0.19481 Units=m
New Line.LINE121 Bus1=117 Bus2=122 phases=3 Linecode=4c_.35 Length=0.53831 Units=m
New Line.LINE122 Bus1=118 Bus2=123 phases=3 Linecode=4c_.1 Length=6.5924 Units=m
New Line.LINE123 Bus1=119 Bus2=124 phases=3 Linecode=4c_185 Length=0.7248 Units=m
New Line.LINE124 Bus1=120 Bus2=125 phases=3 Linecode=4c_.35 Length=0.80412 Units=m
New Line.LINE125 Bus1=121 Bus2=126 phases=3 Linecode=2c_.007 Length=0.16869 Units=m
New Line.LINE126 Bus1=122 Bus2=127 phases=3 Linecode=4c_.35 Length=2.5288 Units=m
New Line.LINE127 Bus1=123 Bus2=128 phases=3 Linecode=4c_.1 Length=2.9646 Units=m
New Line.LINE128 Bus1=124 Bus2=129 phases=3 Linecode=4c_185 Length=0.62512 Units=m
New Line.LINE129 Bus1=125 Bus2=130 phases=3 Linecode=4c_.35 Length=0.87 Units=m
New Line.LINE130 Bus1=126 Bus2=131 phases=3 Linecode=2c_.007 Length=0.11915 Units=m
New Line.LINE131 Bus1=127 Bus2=132 phases=3 Linecode=2c_16 Length=3.8212 Units=m
New Line.LINE132 Bus1=127 Bus2=133 phases=3 Linecode=4c_.35 Length=7.1782 Units=m
New Line.LINE133 Bus1=128 Bus2=134 phases=3 Linecode=4c_.1 Length=0.88205 Units=m
New Line.LINE134 Bus1=129 Bus2=135 phases=3 Linecode=4c_185 Length=1.9203 Units=m
New Line.LINE135 Bus1=130 Bus2=136 phases=3 Linecode=4c_.35 Length=0.82048 Units=m
New Line.LINE136 Bus1=131 Bus2=137 phases=3 Linecode=2c_.007 Length=0.18436 Units=m
New Line.LINE137 Bus1=132 Bus2=138 phases=3 Linecode=2c_16 Length=0.32908 Units=m
New Line.LINE138 Bus1=133 Bus2=139 phases=3 Linecode=4c_.35 Length=5.3402 Units=m
New Line.LINE139 Bus1=134 Bus2=140 phases=3 Linecode=4c_.1 Length=0.99566 Units=m
New Line.LINE140 Bus1=135 Bus2=141 phases=3 Linecode=4c_185 Length=1.4127 Units=m
New Line.LINE141 Bus1=136 Bus2=142 phases=3 Linecode=4c_.35 Length=1.349 Units=m
New Line.LINE142 Bus1=137 Bus2=143 phases=3 Linecode=2c_.007 Length=0.21781 Units=m
New Line.LINE143 Bus1=138 Bus2=144 phases=3 Linecode=2c_16 Length=0.32289 Units=m
New Line.LINE144 Bus1=139 Bus2=145 phases=3 Linecode=4c_.35 Length=3.5762 Units=m
New Line.LINE145 Bus1=140 Bus2=146 phases=3 Linecode=4c_.1 Length=0.9364 Units=m
New Line.LINE146 Bus1=141 Bus2=147 phases=3 Linecode=4c_185 Length=0.24053 Units=m
New Line.LINE147 Bus1=142 Bus2=148 phases=3 Linecode=4c_.35 Length=6.4142 Units=m
New Line.LINE148 Bus1=143 Bus2=149 phases=3 Linecode=2c_.007 Length=0.19401 Units=m
New Line.LINE149 Bus1=144 Bus2=150 phases=3 Linecode=2c_16 Length=0.26072 Units=m
New Line.LINE150 Bus1=145 Bus2=151 phases=3 Linecode=4c_.35 Length=3.5713 Units=m
New Line.LINE151 Bus1=145 Bus2=152 phases=3 Linecode=2c_16 Length=5.1314 Units=m
New Line.LINE152 Bus1=146 Bus2=153 phases=3 Linecode=4c_.1 Length=1.0926 Units=m
New Line.LINE153 Bus1=147 Bus2=154 phases=3 Linecode=4c_185 Length=0.083096 Units=m
New Line.LINE154 Bus1=148 Bus2=155 phases=3 Linecode=4c_.35 Length=1.3973 Units=m
New Line.LINE155 Bus1=149 Bus2=156 phases=3 Linecode=2c_.007 Length=0.2191 Units=m
New Line.LINE156 Bus1=150 Bus2=157 phases=3 Linecode=2c_16 Length=0.39132 Units=m
New Line.LINE157 Bus1=151 Bus2=158 phases=3 Linecode=4c_.35 Length=9.4713 Units=m
New Line.LINE158 Bus1=152 Bus2=159 phases=3 Linecode=2c_16 Length=0.31233 Units=m
New Line.LINE159 Bus1=153 Bus2=160 phases=3 Linecode=4c_.1 Length=0.31439 Units=m
New Line.LINE160 Bus1=154 Bus2=161 phases=3 Linecode=4c_185 Length=0.12256 Units=m
New Line.LINE161 Bus1=155 Bus2=162 phases=3 Linecode=2c_16 Length=11.7422 Units=m
New Line.LINE162 Bus1=155 Bus2=163 phases=3 Linecode=4c_.35 Length=5.2844 Units=m
New Line.LINE163 Bus1=156 Bus2=164 phases=3 Linecode=2c_.007 Length=0.20342 Units=m
New Line.LINE164 Bus1=157 Bus2=165 phases=3 Linecode=2c_16 Length=0.47178 Units=m
New Line.LINE165 Bus1=158 Bus2=166 phases=3 Linecode=4c_.35 Length=3.2899 Units=m
New Line.LINE166 Bus1=159 Bus2=167 phases=3 Linecode=2c_16 Length=0.28533 Units=m
New Line.LINE167 Bus1=160 Bus2=168 phases=3 Linecode=4c_.1 Length=1.7861 Units=m
New Line.LINE168 Bus1=161 Bus2=169 phases=3 Linecode=4c_185 Length=0.24958 Units=m
New Line.LINE169 Bus1=162 Bus2=170 phases=3 Linecode=2c_16 Length=2.2183 Units=m
New Line.LINE170 Bus1=163 Bus2=171 phases=3 Linecode=4c_.35 Length=7.0156 Units=m
New Line.LINE171 Bus1=164 Bus2=172 phases=3 Linecode=2c_.007 Length=0.1727 Units=m
New Line.LINE172 Bus1=165 Bus2=173 phases=3 Linecode=2c_16 Length=0.35642 Units=m
New Line.LINE173 Bus1=166 Bus2=174 phases=3 Linecode=4c_.35 Length=3.9183 Units=m
New Line.LINE174 Bus1=166 Bus2=175 phases=3 Linecode=2c_16 Length=4.2045 Units=m
New Line.LINE175 Bus1=167 Bus2=176 phases=3 Linecode=2c_16 Length=0.11853 Units=m
New Line.LINE176 Bus1=168 Bus2=177 phases=3 Linecode=4c_.1 Length=1.0088 Units=m
New Line.LINE177 Bus1=170 Bus2=178 phases=3 Linecode=2c_16 Length=4.5768 Units=m
New Line.LINE178 Bus1=171 Bus2=179 phases=3 Linecode=4c_.35 Length=1.1818 Units=m
New Line.LINE179 Bus1=171 Bus2=180 phases=3 Linecode=2c_16 Length=2.4224 Units=m
New Line.LINE180 Bus1=172 Bus2=181 phases=3 Linecode=2c_.007 Length=0.17961 Units=m
New Line.LINE181 Bus1=173 Bus2=182 phases=3 Linecode=2c_16 Length=0.41244 Units=m
New Line.LINE182 Bus1=174 Bus2=183 phases=3 Linecode=4c_.35 Length=0.58763 Units=m
New Line.LINE183 Bus1=175 Bus2=184 phases=3 Linecode=2c_16 Length=0.45409 Units=m
New Line.LINE184 Bus1=176 Bus2=185 phases=3 Linecode=2c_16 Length=0.25549 Units=m
New Line.LINE185 Bus1=177 Bus2=186 phases=3 Linecode=4c_.1 Length=0.74886 Units=m
New Line.LINE186 Bus1=179 Bus2=187 phases=3 Linecode=4c_.35 Length=4.6507 Units=m
New Line.LINE187 Bus1=180 Bus2=188 phases=3 Linecode=2c_16 Length=10.0258 Units=m
New Line.LINE188 Bus1=181 Bus2=189 phases=3 Linecode=2c_.007 Length=0.15412 Units=m
New Line.LINE189 Bus1=182 Bus2=190 phases=3 Linecode=2c_16 Length=0.3878 Units=m
New Line.LINE190 Bus1=183 Bus2=191 phases=3 Linecode=4c_.35 Length=2.3151 Units=m
New Line.LINE191 Bus1=183 Bus2=192 phases=3 Linecode=4c_.35 Length=0.27791 Units=m
New Line.LINE192 Bus1=184 Bus2=193 phases=3 Linecode=2c_16 Length=0.43923 Units=m
New Line.LINE193 Bus1=185 Bus2=194 phases=3 Linecode=2c_16 Length=0.65073 Units=m
New Line.LINE194 Bus1=186 Bus2=195 phases=3 Linecode=4c_.1 Length=0.67326 Units=m
New Line.LINE195 Bus1=187 Bus2=196 phases=3 Linecode=4c_.35 Length=8.3036 Units=m
New Line.LINE196 Bus1=188 Bus2=197 phases=3 Linecode=2c_16 Length=1.9595 Units=m
New Line.LINE197 Bus1=188 Bus2=198 phases=3 Linecode=2c_16 Length=1.1325 Units=m
New Line.LINE198 Bus1=189 Bus2=199 phases=3 Linecode=2c_.007 Length=0.19148 Units=m
New Line.LINE199 Bus1=190 Bus2=200 phases=3 Linecode=2c_16 Length=0.41725 Units=m
New Line.LINE200 Bus1=191 Bus2=201 phases=3 Linecode=4c_.35 Length=0.9314 Units=m
...


New Transformer.TR1 Buses=[SourceBus 1] Conns=[Delta Wye] kVs=[11 0.416] kVAs=[800 800] XHL=4 sub=y


!dump transformer.TR1 debug


!! Load Definitions 

New Load.LOAD1 Phases=1 Bus1=34.1 kV=0.23 kW=1 PF=0.95 Yearly=Shape_1 
New Load.LOAD2 Phases=1 Bus1=47.2 kV=0.23 kW=1 PF=0.95 Yearly=Shape_2
New Load.LOAD3 Phases=1 Bus1=70.1 kV=0.23 kW=1 PF=0.95 Yearly=Shape_3
New Load.LOAD4 Phases=1 Bus1=73.1 kV=0.23 kW=1 PF=0.95 Yearly=Shape_4
New Load.LOAD5 Phases=1 Bus1=74.1 kV=0.23 kW=1 PF=0.95 Yearly=Shape_5
New Load.LOAD6 Phases=1 Bus1=83.2 kV=0.23 kW=1 PF=0.95 Yearly=Shape_6
New Load.LOAD7 Phases=1 Bus1=178.2 kV=0.23 kW=1 PF=0.95 Yearly=Shape_7
New Load.LOAD8 Phases=1 Bus1=208.3 kV=0.23 kW=1 PF=0.95 Yearly=Shape_8
New Load.LOAD9 Phases=1 Bus1=225.1 kV=0.23 kW=1 PF=0.95 Yearly=Shape_9
New Load.LOAD10 Phases=1 Bus1=248.2 kV=0.23 kW=1 PF=0.95 Yearly=Shape_10
New Load.LOAD11 Phases=1 Bus1=249.2 kV=0.23 kW=1 PF=0.95 Yearly=Shape_11
New Load.LOAD12 Phases=1 Bus1=264.3 kV=0.23 kW=1 PF=0.95 Yearly=Shape_12
New Load.LOAD13 Phases=1 Bus1=276.2 kV=0.23 kW=1 PF=0.95 Yearly=Shape_13
New Load.LOAD14 Phases=1 Bus1=289.1 kV=0.23 kW=1 PF=0.95 Yearly=Shape_14
New Load.LOAD15 Phases=1 Bus1=314.2 kV=0.23 kW=1 PF=0.95 Yearly=Shape_15
New Load.LOAD16 Phases=1 Bus1=320.3 kV=0.23 kW=1 PF=0.95 Yearly=Shape_16
New Load.LOAD17 Phases=1 Bus1=327.3 kV=0.23 kW=1 PF=0.95 Yearly=Shape_17
New Load.LOAD18 Phases=1 Bus1=337.3 kV=0.23 kW=1 PF=0.95 Yearly=Shape_18
New Load.LOAD19 Phases=1 Bus1=342.3 kV=0.23 kW=1 PF=0.95 Yearly=Shape_19
New Load.LOAD20 Phases=1 Bus1=349.1 kV=0.23 kW=1 PF=0.95 Yearly=Shape_20
New Load.LOAD21 Phases=1 Bus1=387.1 kV=0.23 kW=1 PF=0.95 Yearly=Shape_21
New Load.LOAD22 Phases=1 Bus1=388.1 kV=0.23 kW=1 PF=0.95 Yearly=Shape_22
New Load.LOAD23 Phases=1 Bus1=406.2 kV=0.23 kW=1 PF=0.95 Yearly=Shape_23
New Load.LOAD24 Phases=1 Bus1=458.3 kV=0.23 kW=1 PF=0.95 Yearly=Shape_24
New Load.LOAD25 Phases=1 Bus1=502.1 kV=0.23 kW=1 PF=0.95 Yearly=Shape_25
New Load.LOAD26 Phases=1 Bus1=522.2 kV=0.23 kW=1 PF=0.95 Yearly=Shape_26
New Load.LOAD27 Phases=1 Bus1=539.3 kV=0.23 kW=1 PF=0.95 Yearly=Shape_27
New Load.LOAD28 Phases=1 Bus1=556.3 kV=0.23 kW=1 PF=0.95 Yearly=Shape_28
New Load.LOAD29 Phases=1 Bus1=562.1 kV=0.23 kW=1 PF=0.95 Yearly=Shape_29
New Load.LOAD30 Phases=1 Bus1=563.1 kV=0.23 kW=1 PF=0.95 Yearly=Shape_30
New Load.LOAD31 Phases=1 Bus1=611.1 kV=0.23 kW=1 PF=0.95 Yearly=Shape_31
New Load.LOAD32 Phases=1 Bus1=614.3 kV=0.23 kW=1 PF=0.95 Yearly=Shape_32
New Load.LOAD33 Phases=1 Bus1=619.3 kV=0.23 kW=1 PF=0.95 Yearly=Shape_33
New Load.LOAD34 Phases=1 Bus1=629.1 kV=0.23 kW=1 PF=0.95 Yearly=Shape_34
New Load.LOAD35 Phases=1 Bus1=639.2 kV=0.23 kW=1 PF=0.95 Yearly=Shape_35
New Load.LOAD36 Phases=1 Bus1=676.2 kV=0.23 kW=1 PF=0.95 Yearly=Shape_36
New Load.LOAD37 Phases=1 Bus1=682.2 kV=0.23 kW=1 PF=0.95 Yearly=Shape_37
New Load.LOAD38 Phases=1 Bus1=688.2 kV=0.23 kW=1 PF=0.95 Yearly=Shape_38
New Load.LOAD39 Phases=1 Bus1=701.3 kV=0.23 kW=1 PF=0.95 Yearly=Shape_39
New Load.LOAD40 Phases=1 Bus1=702.2 kV=0.23 kW=1 PF=0.95 Yearly=Shape_40
New Load.LOAD41 Phases=1 Bus1=755.2 kV=0.23 kW=1 PF=0.95 Yearly=Shape_41
New Load.LOAD42 Phases=1 Bus1=778.3 kV=0.23 kW=1 PF=0.95 Yearly=Shape_42
New Load.LOAD43 Phases=1 Bus1=780.3 kV=0.23 kW=1 PF=0.95 Yearly=Shape_43
New Load.LOAD44 Phases=1 Bus1=785.2 kV=0.23 kW=1 PF=0.95 Yearly=Shape_44
New Load.LOAD45 Phases=1 Bus1=813.2 kV=0.23 kW=1 PF=0.95 Yearly=Shape_45
New Load.LOAD46 Phases=1 Bus1=817.1 kV=0.23 kW=1 PF=0.95 Yearly=Shape_46
New Load.LOAD47 Phases=1 Bus1=835.3 kV=0.23 kW=1 PF=0.95 Yearly=Shape_47
New Load.LOAD48 Phases=1 Bus1=860.1 kV=0.23 kW=1 PF=0.95 Yearly=Shape_48
New Load.LOAD49 Phases=1 Bus1=861.1 kV=0.23 kW=1 PF=0.95 Yearly=Shape_49
New Load.LOAD50 Phases=1 Bus1=886.2 kV=0.23 kW=1 PF=0.95 Yearly=Shape_50
New Load.LOAD51 Phases=1 Bus1=896.1 kV=0.23 kW=1 PF=0.95 Yearly=Shape_51
New Load.LOAD52 Phases=1 Bus1=898.1 kV=0.23 kW=1 PF=0.95 Yearly=Shape_52
New Load.LOAD53 Phases=1 Bus1=899.2 kV=0.23 kW=1 PF=0.95 Yearly=Shape_53
New Load.LOAD54 Phases=1 Bus1=900.1 kV=0.23 kW=1 PF=0.95 Yearly=Shape_54
New Load.LOAD55 Phases=1 Bus1=906.1 kV=0.23 kW=1 PF=0.95 Yearly=Shape_55
batchedit load..* Vmaxpu=1.15 Vminpu=0.85

!! PV System Definitions

New PVSystem.PV_SUM_SYS_1 phases=1 bus1=34.1 kV=0.23 kVA=2.7412 irradiance=1 Pmpp=2.7412 %cutin=0.1 %cutout=0.1 yearly=PV_1
New PVSystem.PV_SUM_SYS_2 phases=1 bus1=47.2 kV=0.23 kVA=2.7412 irradiance=1 Pmpp=2.7412 %cutin=0.1 %cutout=0.1 yearly=PV_2
New PVSystem.PV_SUM_SYS_3 phases=1 bus1=70.1 kV=0.23 kVA=2.7412 irradiance=1 Pmpp=2.7412 %cutin=0.1 %cutout=0.1 yearly=PV_3
New PVSystem.PV_SUM_SYS_4 phases=1 bus1=73.1 kV=0.23 kVA=2.7412 irradiance=1 Pmpp=2.7412 %cutin=0.1 %cutout=0.1 yearly=PV_4
New PVSystem.PV_SUM_SYS_5 phases=1 bus1=74.1 kV=0.23 kVA=2.7412 irradiance=1 Pmpp=2.7412 %cutin=0.1 %cutout=0.1 yearly=PV_5
New PVSystem.PV_SUM_SYS_6 phases=1 bus1=83.2 kV=0.23 kVA=2.7412 irradiance=1 Pmpp=2.7412 %cutin=0.1 %cutout=0.1 yearly=PV_6
New PVSystem.PV_SUM_SYS_7 phases=1 bus1=178.2 kV=0.23 kVA=2.7412 irradiance=1 Pmpp=2.7412 %cutin=0.1 %cutout=0.1 yearly=PV_7
New PVSystem.PV_SUM_SYS_8 phases=1 bus1=208.3 kV=0.23 kVA=2.7412 irradiance=1 Pmpp=2.7412 %cutin=0.1 %cutout=0.1 yearly=PV_8
New PVSystem.PV_SUM_SYS_9 phases=1 bus1=225.1 kV=0.23 kVA=2.7412 irradiance=1 Pmpp=2.7412 %cutin=0.1 %cutout=0.1 yearly=PV_9
New PVSystem.PV_SUM_SYS_10 phases=1 bus1=248.2 kV=0.23 kVA=2.7412 irradiance=1 Pmpp=2.7412 %cutin=0.1 %cutout=0.1 yearly=PV_10
New PVSystem.PV_SUM_SYS_11 phases=1 bus1=249.2 kV=0.23 kVA=2.7412 irradiance=1 Pmpp=2.7412 %cutin=0.1 %cutout=0.1 yearly=PV_11
New PVSystem.PV_SUM_SYS_12 phases=1 bus1=264.3 kV=0.23 kVA=2.7412 irradiance=1 Pmpp=2.7412 %cutin=0.1 %cutout=0.1 yearly=PV_12
New PVSystem.PV_SUM_SYS_13 phases=1 bus1=276.2 kV=0.23 kVA=2.7412 irradiance=1 Pmpp=2.7412 %cutin=0.1 %cutout=0.1 yearly=PV_13
New PVSystem.PV_SUM_SYS_14 phases=1 bus1=289.1 kV=0.23 kVA=2.7412 irradiance=1 Pmpp=2.7412 %cutin=0.1 %cutout=0.1 yearly=PV_14
New PVSystem.PV_SUM_SYS_15 phases=1 bus1=314.2  kV=0.23 kVA=2.7412 irradiance=1 Pmpp=2.7412 %cutin=0.1 %cutout=0.1 yearly=PV_15
New PVSystem.PV_SUM_SYS_16 phases=1 bus1=320.3 kV=0.23 kVA=2.7412 irradiance=1 Pmpp=2.7412 %cutin=0.1 %cutout=0.1 yearly=PV_16
New PVSystem.PV_SUM_SYS_17 phases=1 bus1=327.3 kV=0.23 kVA=2.7412 irradiance=1 Pmpp=2.7412 %cutin=0.1 %cutout=0.1 yearly=PV_17
New PVSystem.PV_SUM_SYS_18 phases=1 bus1=337.3 kV=0.23 kVA=2.7412 irradiance=1 Pmpp=2.7412 %cutin=0.1 %cutout=0.1 yearly=PV_18
New PVSystem.PV_SUM_SYS_19 phases=1 bus1=342.3 kV=0.23 kVA=2.7412 irradiance=1 Pmpp=2.7412 %cutin=0.1 %cutout=0.1 yearly=PV_19
New PVSystem.PV_SUM_SYS_20 phases=1 bus1=349.1 kV=0.23 kVA=2.7412 irradiance=1 Pmpp=2.7412 %cutin=0.1 %cutout=0.1 yearly=PV_20
New PVSystem.PV_SUM_SYS_21 phases=1 bus1=387.1 kV=0.23 kVA=2.7412 irradiance=1 Pmpp=2.7412 %cutin=0.1 %cutout=0.1 yearly=PV_21
New PVSystem.PV_SUM_SYS_22 phases=1 bus1=388.1 kV=0.23 kVA=2.7412 irradiance=1 Pmpp=2.7412 %cutin=0.1 %cutout=0.1 yearly=PV_22
New PVSystem.PV_SUM_SYS_23 phases=1 bus1=406.2 kV=0.23 kVA=2.7412 irradiance=1 Pmpp=2.7412 %cutin=0.1 %cutout=0.1 yearly=PV_23
New PVSystem.PV_SUM_SYS_24 phases=1 bus1=458.3 kV=0.23 kVA=2.7412 irradiance=1 Pmpp=2.7412 %cutin=0.1 %cutout=0.1 yearly=PV_24
New PVSystem.PV_SUM_SYS_25 phases=1 bus1=502.1 kV=0.23 kVA=2.7412 irradiance=1 Pmpp=2.7412 %cutin=0.1 %cutout=0.1 yearly=PV_25
New PVSystem.PV_SUM_SYS_26 phases=1 bus1=522.2 kV=0.23 kVA=2.7412 irradiance=1 Pmpp=2.7412 %cutin=0.1 %cutout=0.1 yearly=PV_26
New PVSystem.PV_SUM_SYS_27 phases=1 bus1=539.3 kV=0.23 kVA=2.7412 irradiance=1 Pmpp=2.7412 %cutin=0.1 %cutout=0.1 yearly=PV_27
New PVSystem.PV_SUM_SYS_28 phases=1 bus1=556.3 kV=0.23 kVA=2.7412 irradiance=1 Pmpp=2.7412 %cutin=0.1 %cutout=0.1 yearly=PV_28
New PVSystem.PV_SUM_SYS_29 phases=1 bus1=562.1 kV=0.23 kVA=2.7412 irradiance=1 Pmpp=2.7412 %cutin=0.1 %cutout=0.1 yearly=PV_29
New PVSystem.PV_SUM_SYS_30 phases=1 bus1=563.1 kV=0.23 kVA=2.7412 irradiance=1 Pmpp=2.7412 %cutin=0.1 %cutout=0.1 yearly=PV_30
New PVSystem.PV_SUM_SYS_31 phases=1 bus1=611.1 kV=0.23 kVA=2.7412 irradiance=1 Pmpp=2.7412 %cutin=0.1 %cutout=0.1 yearly=PV_31
New PVSystem.PV_SUM_SYS_32 phases=1 bus1=614.3 kV=0.23 kVA=2.7412 irradiance=1 Pmpp=2.7412 %cutin=0.1 %cutout=0.1 yearly=PV_32
New PVSystem.PV_SUM_SYS_33 phases=1 bus1=619.3 kV=0.23 kVA=2.7412 irradiance=1 Pmpp=2.7412 %cutin=0.1 %cutout=0.1 yearly=PV_33
New PVSystem.PV_SUM_SYS_34 phases=1 bus1=629.1 kV=0.23 kVA=2.7412 irradiance=1 Pmpp=2.7412 %cutin=0.1 %cutout=0.1 yearly=PV_34
New PVSystem.PV_SUM_SYS_35 phases=1 bus1=639.2 kV=0.23 kVA=2.7412 irradiance=1 Pmpp=2.7412 %cutin=0.1 %cutout=0.1 yearly=PV_35
New PVSystem.PV_SUM_SYS_36 phases=1 bus1=676.2 kV=0.23 kVA=2.7412 irradiance=1 Pmpp=2.7412 %cutin=0.1 %cutout=0.1 yearly=PV_36
New PVSystem.PV_SUM_SYS_37 phases=1 bus1=682.2 kV=0.23 kVA=2.7412 irradiance=1 Pmpp=2.7412 %cutin=0.1 %cutout=0.1 yearly=PV_37
New PVSystem.PV_SUM_SYS_38 phases=1 bus1=688.2 kV=0.23 kVA=2.7412 irradiance=1 Pmpp=2.7412 %cutin=0.1 %cutout=0.1 yearly=PV_38
New PVSystem.PV_SUM_SYS_39 phases=1 bus1=701.3 kV=0.23 kVA=2.7412 irradiance=1 Pmpp=2.7412 %cutin=0.1 %cutout=0.1 yearly=PV_39
New PVSystem.PV_SUM_SYS_40 phases=1 bus1=702.2 kV=0.23 kVA=2.7412 irradiance=1 Pmpp=2.7412 %cutin=0.1 %cutout=0.1 yearly=PV_40
New PVSystem.PV_SUM_SYS_41 phases=1 bus1=755.2 kV=0.23 kVA=2.7412 irradiance=1 Pmpp=2.7412 %cutin=0.1 %cutout=0.1 yearly=PV_41
New PVSystem.PV_SUM_SYS_42 phases=1 bus1=778.3 kV=0.23 kVA=2.7412 irradiance=1 Pmpp=2.7412 %cutin=0.1 %cutout=0.1 yearly=PV_42
New PVSystem.PV_SUM_SYS_43 phases=1 bus1=780.3 kV=0.23 kVA=2.7412 irradiance=1 Pmpp=2.7412 %cutin=0.1 %cutout=0.1 yearly=PV_43
New PVSystem.PV_SUM_SYS_44 phases=1 bus1=785.2 kV=0.23 kVA=2.7412 irradiance=1 Pmpp=2.7412 %cutin=0.1 %cutout=0.1 yearly=PV_44
New PVSystem.PV_SUM_SYS_45 phases=1 bus1=813.2 kV=0.23 kVA=2.7412 irradiance=1 Pmpp=2.7412 %cutin=0.1 %cutout=0.1 yearly=PV_45
New PVSystem.PV_SUM_SYS_46 phases=1 bus1=817.1 kV=0.23 kVA=2.7412 irradiance=1 Pmpp=2.7412 %cutin=0.1 %cutout=0.1 yearly=PV_46
New PVSystem.PV_SUM_SYS_47 phases=1 bus1=835.3 kV=0.23 kVA=2.7412 irradiance=1 Pmpp=2.7412 %cutin=0.1 %cutout=0.1 yearly=PV_47
New PVSystem.PV_SUM_SYS_48 phases=1 bus1=860.1 kV=0.23 kVA=2.7412 irradiance=1 Pmpp=2.7412 %cutin=0.1 %cutout=0.1 yearly=PV_48
New PVSystem.PV_SUM_SYS_49 phases=1 bus1=861.1 kV=0.23 kVA=2.7412 irradiance=1 Pmpp=2.7412 %cutin=0.1 %cutout=0.1 yearly=PV_49
New PVSystem.PV_SUM_SYS_50 phases=1 bus1=886.2 kV=0.23 kVA=2.7412 irradiance=1 Pmpp=2.7412 %cutin=0.1 %cutout=0.1 yearly=PV_50
New PVSystem.PV_SUM_SYS_51 phases=1 bus1=896.1 kV=0.23 kVA=2.7412 irradiance=1 Pmpp=2.7412 %cutin=0.1 %cutout=0.1 yearly=PV_51
New PVSystem.PV_SUM_SYS_52 phases=1 bus1=898.1 kV=0.23 kVA=2.7412 irradiance=1 Pmpp=2.7412 %cutin=0.1 %cutout=0.1 yearly=PV_52
New PVSystem.PV_SUM_SYS_53 phases=1 bus1=899.2 kV=0.23 kVA=2.7412 irradiance=1 Pmpp=2.7412 %cutin=0.1 %cutout=0.1 yearly=PV_53
New PVSystem.PV_SUM_SYS_54 phases=1 bus1=900.1 kV=0.23 kVA=2.7412 irradiance=1 Pmpp=2.7412 %cutin=0.1 %cutout=0.1 yearly=PV_54
New PVSystem.PV_SUM_SYS_55 phases=1 bus1=906.1 kV=0.23 kVA=2.7412 irradiance=1 Pmpp=2.7412 %cutin=0.1 %cutout=0.1 yearly=PV_55




!New Storage.Battery1 Phases=1 Bus1=34.1  kV=0.23 kWRated=1  kWhRated=1.5  dispmode=default  

!TimeChargeTrig=2.0
!Yearly=Shape_1

New Monitor.LINE1_PQ_vs_Time Line.LINE1 2 Mode=1 ppolar=0
New Monitor.LINE1_VI_vs_Time Line.LINE1 2 Mode=0

!New Monitor.Battery1_PQ_vs_Time Storage.Battery1 1 Mode=1 ppolar=0


!New energymeter.m1 LINE.LINE1 1

Set voltagebases=[11  .416]
Calcvoltagebases
buscoords buscoords.txt


!solve


! Set "DemandInterval" to true so that energy quantities recorded by energy meters are recorded for 
! each time step and set "casename" to define a directory under default directory in which all of the 
! demand interval data is recorded.  (NOTE: Setting Demand=true resets all energymeters.)

!Set overloadreport=true  ! TURN OVERLOAD REPORT ON
!Set voltexcept=true      ! voltage exception report
!set demand=true          ! demand interval ON
!set DIVerbose=true       ! verbose mode is ON

!Set DemandInterval = true

!Set Year=1        ! This statement resets all meters

!solve 

!show Voltage LN Nodes

!closedi     ! close demand interval files at end of run

!plot circuit Power Max=30 dots=n labels=n subs=y C1=$00FF0000

!export mon Battery1_PQ_vs_Time
!export Voltages

/*
plot profile ph=all
export mon LINE1_VI_VS_Time
export mon LINE611_VI_VS_Time
export mon LINE898_VI_VS_Time
export mon LINE6_VI_VS_Time
export mon LINE27_VI_VS_Time
export mon LINE71_VI_VS_Time
export mon LINE147_VI_VS_Time
export mon LINE170_VI_VS_Time
export mon LINE195_VI_VS_Time
export mon LINE262_VI_VS_Time
export mon LINE438_VI_VS_Time
export mon LINE504_VI_VS_Time
export mon LINE603_VI_VS_Time
export mon LINE825_VI_VS_Time

Show mon LINE558_VI_vs_Time 
Show mon LINE825_VI_vs_Time 

Visualize element=Line.LINE1 what=powers

Plot monitor object= line558_vi_vs_time channels=(1 3 5 ) bases=[240 240 240]
Plot monitor object= line825_vi_vs_time channels=(1 3 5 ) bases=[240 240 240]
*/


! Storage Exports 
